*Heading
** Job name: DefaultLB21102025 Model name: Model-1
** Generated by: Abaqus/CAE 2020
*Preprint, echo=NO, model=NO, history=NO, contact=NO
**
** PARTS
**
*Part, name=original_1010
*Node
      1,   1.15537035,  0.185645744, -0.0627688766
      2,   1.15537035,  0.185645744, 0.0632311255
      3,   1.14930689,  0.204704478, 0.0632311255
      4,   1.14930689,  0.204704478, -0.0627688766
      5,   1.16179979,  0.187691242, 0.0695696548
      6,   1.15150893,  0.205405027, 0.0654019788
      7,   1.22742796,  0.221450806,  0.062650457
      8,   1.22743058,  0.221372575, 0.0623114072
      9,   1.22742677,  0.221488923, 0.0622845329
     10,   1.22742665,  0.221489012, 0.0626399294
     11,   1.22743058,  0.221372575, -0.0623114072
     12,   1.22742665,  0.221489027, -0.0628160834
     13,   1.22742677,  0.221488923, -0.0622845329
     14,   1.29139388,   0.22354041, -0.0623114072
     15,   1.29130244,  0.226238281, -0.0740038529
     16,   1.22733915,  0.224070445, -0.0740038529
     17,   1.29106379,  0.233278528, -0.0600618981
     18,   1.29097235,  0.235976383, -0.0717543364
     19,   1.22710061,  0.231110692, -0.0600618981
     20,   1.22700918,  0.233808547, -0.0717543364
** ... 22282 like lines cut
*Element, type=C3D4
    1, 20877, 20878, 11855, 20879
    2, 20877, 11855, 20880,  7300
    3, 20877, 20879,  7300,  7275
    4, 20877, 20878,  7275,  1197
    5, 20881, 20882,  1175, 20883
    6, 20882,  1175, 20883, 20884
    7,   812, 20850, 20885,  1178
    8, 20884, 20886,   971, 20887
    9, 20884, 20882, 12312, 20883
   10, 20884,   971, 20886, 12304
   11, 20888, 20889, 20204, 20367
   12, 20888, 20889, 20783, 20699
   13,  1076,   124, 12352, 12466
   14, 20372, 20890, 20371, 20891
   15, 20372, 20892, 20893, 20890
   16, 20890, 20892, 20893, 20620
   17, 20891, 20894, 20892, 20620
   18, 20895, 20896, 17302, 20897
   19, 20895, 17067, 20898, 17069
   20, 20895, 20899, 17302, 17242
** ... 70564 like lines cut
*Nset, nset=_PickedSet2, internal, generate
     1,  22302,      1
*Elset, elset=_PickedSet2, internal, generate
     1,  70584,      1
** Section: Section-1
*Solid Section, elset=_PickedSet2, material=UHSS
,
*End Part
**  
**
** ASSEMBLY
**
*Assembly, name=Assembly
**  
*Instance, name=original_1010-1, part=original_1010
*End Instance
**  
*End Assembly
** 
** MATERIALS
** 
*Material, name=UHSS
*Density
7850.,
*Elastic
 2.1e+11, 0.3
** ----------------------------------------------------------------
** 
** STEP: modal
** 
*Step, name=modal, nlgeom=NO, perturbation
*Frequency, eigensolver=Lanczos, sim, acoustic coupling=on, normalization=mass
10, , , , , 
** 
** OUTPUT REQUESTS
** 
*Restart, write, frequency=0
** 
** FIELD OUTPUT: F-Output-1
** 
*Output, field, variable=PRESELECT
*End Step
** STEP: Matrix gen
*Step, name=matrix-step, nlgeom=NO
*Matrix generate, stiffness, mass
*Matrix output, stiffness=YES, mass=YES, format=coordinate
*End Step
