*Heading
** Job name: Job-3 Model name: Model-1
** Generated by: Abaqus/CAE 2020
*Preprint, echo=NO, model=NO, history=NO, contact=NO
**
** PARTS
**
*Part, name="optimized0407 (1)"
*Node
      1,   1.22811878,  0.220858067, 0.0303284153
      2,   1.22742665,  0.221489027, 0.0301399268
      3,   1.22742796,  0.221450806, 0.0301504564
      4,   1.22759879,  0.219118565, 0.0307950526
      5,   1.22857356,  0.219428658, 0.0307311229
      6,   1.14930689,  0.204704478, -0.0325841568
      7,   1.14930689,  0.204704478,  0.033046402
      8,   1.20648313,  0.222894639, 0.0292964038
      9,   1.20648313,  0.222894639, -0.0288341567
     10,   1.22902834,  0.217999265, 0.0307311229
     11,   1.22888505,  0.217345178, 0.0307520479
     12,   1.22902834,  0.217999265, 0.0306022484
     13,   1.22811878,  0.220858067, 0.0299355052
     14,   1.22742665,  0.221489027, 0.0297845099
     15,   1.22710061,  0.231110692, 0.0275618974
     16,   1.22700918,  0.233808547, 0.0392543375
     17,   1.22733915,  0.224070445, 0.0415038504
     18,   1.29097235,  0.235976383, 0.0392543375
     19,   1.29106379,  0.233278528, 0.0275618974
     20,   1.29130244,  0.226238281, 0.0415038504
** ... 14953 like lines cut
*Element, type=C3D4
    1, 14434, 14254, 14435, 14436
    2, 14437,   956, 14438,   157
    3, 14437, 14438,  1740,   282
    4,   157,  1739,   273,   282
    5,  1739, 14437,   157,   957
    6,  9510,  3051,  9838,  3558
    7, 14439, 14130, 14131, 14440
    8, 14439, 14440, 14441, 14130
    9, 14439, 14440, 11243, 14441
   10,  4653, 11242,  2765,  2764
   11,  2763,  4653,  2764, 14439
   12, 14439,  4654, 11243,  2763
   13, 14439, 11243, 14440, 11242
   14,  4648, 11239,  2771, 14442
   15,  2772,  4648, 11239,  2771
   16,  2771, 11240,  2770,  4649
   17, 14442, 14443, 11239, 11240
   18, 14444, 11548, 14445, 11388
   19, 14444, 11544, 14446, 11186
   20, 14444, 14445, 11548, 14447
** ... 46093 like lines cut
*Nset, nset=_PickedSet2, internal, generate
     1,  14973,      1
*Elset, elset=_PickedSet2, internal, generate
     1,  46113,      1
** Section: Section-1
*Solid Section, elset=_PickedSet2, material=Material-1
,
*End Part
**  
**
** ASSEMBLY
**
*Assembly, name=Assembly
**  
*Instance, name="optimized0407 (1)-1", part="optimized0407 (1)"
*End Instance
**  
*End Assembly
** 
** MATERIALS
** 
*Material, name=Material-1
*Density
7850.,
*Elastic
 2.1e+11, 0.3
** ----------------------------------------------------------------
** 
** STEP: eigenop
** 
*Step, name=eigenop, nlgeom=NO, perturbation
*Frequency, eigensolver=Lanczos, sim, acoustic coupling=on, normalization=mass
10, , , , , 
** 
** OUTPUT REQUESTS
** 
*Restart, write, frequency=0
** 
** FIELD OUTPUT: F-Output-1
** 
*Output, field, variable=PRESELECT
*End Step
** STEP: Matrix gen
*Step, name=matrix-step, nlgeom=NO
*Matrix generate, stiffness, mass
*Matrix output, stiffness=YES, mass=YES, format=coordinate
*End Step